OPT_V9/My_campus_w_initial_sub_3_active_28_03_16_10/powerflow_results_t4.txt
Pandapower Network Debug Info
==================================================

BUS:
       vm_pu  va_degree      p_mw    q_mvar
0   1.001344  -0.160182  0.000994 -0.004573
1   1.002139  -0.148306 -0.000574 -0.000434
2   1.002531  -0.130838 -0.000434  0.000000
3   1.000728  -0.198225  0.001057 -0.000172
4   1.000564  -0.093774  0.000434 -0.000251
5   1.001858  -0.051278 -0.000005 -0.000304
6   1.003891  -0.092255 -0.001057 -0.001650
7   1.000849  -0.060187 -0.000173 -0.001657
8   1.000854  -0.052765 -0.001498 -0.005807
9   0.999909   0.000605  0.008603  0.011174
10  0.999896   0.000690  0.009717  0.009993
11  0.999887   0.000743  0.010522  0.010098
12  0.999855  -0.001356  0.010812  0.005426
13  0.999835  -0.001251  0.012388  0.010623
14  0.999823  -0.001237  0.015427  0.012523
15  0.999950   0.000216  0.000000  0.000000
16  0.999950   0.000213  0.000000  0.000000
17  0.999860  -0.001296  0.000000  0.000000
18  0.999860  -0.001302  0.000000  0.000000
19  1.000000   0.000000 -0.029923 -0.031099
20  1.000000   0.000004  0.000000  0.000000
21  1.000000   0.000000 -0.036369 -0.023920
22  1.000000   0.000003  0.000000  0.000000
--------------------------------------------------

LINE:
    p_from_mw   q_from_mvar   p_to_mw     q_to_mvar         pl_mw       ql_mvar  i_from_ka   i_to_ka      i_ka  vm_from_pu  va_from_degree  vm_to_pu  va_to_degree  loading_percent
0    0.029913  2.709917e-02 -0.029911 -2.709793e-02  1.593513e-06  1.242488e-06   0.001554  0.001554  0.001554    1.000000        0.000004  0.999950      0.000216         0.675459
1    0.036359  1.991961e-02 -0.036355 -1.991601e-02  4.623339e-06  3.604894e-06   0.001596  0.001596  0.001596    1.000000        0.000003  0.999860     -0.001296         0.693798
2    0.028844  3.126664e-02 -0.028842 -3.126555e-02  1.399447e-06  1.091172e-06   0.001637  0.001637  0.001637    0.999950        0.000216  0.999909      0.000605         0.711917
3    0.010812  5.426408e-03 -0.010812 -5.426368e-03  5.062247e-08  3.947117e-08   0.000466  0.000466  0.000466    0.999860       -0.001296  0.999855     -0.001356         0.202472
4    0.027816  2.314663e-02 -0.027816 -2.314608e-02  7.162369e-07  5.584617e-07   0.001393  0.001393  0.001393    0.999860       -0.001296  0.999835     -0.001251         0.605671
5    0.001057 -5.168564e-03 -0.001044  5.178715e-03  1.301890e-05  1.015105e-05   0.007615  0.007615  0.007615    0.999950        0.000213  1.001344     -0.160182         3.310895
6   -0.001055 -1.948669e-03  0.001059  1.951640e-03  3.810258e-06  2.970921e-06   0.003199  0.003199  0.003199    0.999860       -0.001302  1.001858     -0.051278         1.390750
7   -0.000171 -1.655889e-03  0.000173  1.657349e-03  1.872852e-06  1.460294e-06   0.002403  0.002403  0.002403    0.999860       -0.001302  1.000849     -0.060187         1.044855
8   -0.001057 -6.052146e-03  0.001064  6.057207e-03  6.491839e-06  5.061794e-06   0.008869  0.008869  0.008869    0.999860       -0.001302  1.000854     -0.052765         3.856116
9   -0.020239 -2.009150e-02  0.020239  2.009172e-02  2.813084e-07  2.193408e-07   0.001098  0.001098  0.001098    0.999896        0.000690  0.999909      0.000605         0.477293
10  -0.010522 -1.009803e-02  0.010522  1.009811e-02  1.040413e-07  8.112272e-08   0.000561  0.000561  0.000561    0.999887        0.000743  0.999896      0.000690         0.244084
11  -0.015427 -1.252335e-02  0.015427  1.252350e-02  1.931688e-07  1.506169e-07   0.000765  0.000765  0.000765    0.999823       -0.001237  0.999835     -0.001251         0.332587
12   0.001008  4.342725e-04 -0.001007 -4.337193e-04  7.094847e-07  5.531969e-07   0.001581  0.001581  0.001581    1.002139       -0.148306  1.001344     -0.160182         0.687226
13  -0.001057  1.722556e-04  0.001058 -1.716593e-04  7.648580e-07  5.963723e-07   0.001545  0.001545  0.001545    1.000728       -0.198225  1.001344     -0.160182         0.671671
14   0.000434  4.648070e-12 -0.000434  1.323435e-07  1.697388e-07  1.323482e-07   0.000625  0.000625  0.000625    1.002531       -0.130838  1.002139     -0.148306         0.271841
15   0.000434 -2.504116e-04 -0.000434  2.506497e-04  3.053262e-07  2.380679e-07   0.000723  0.000723  0.000723    1.000854       -0.052765  1.000564     -0.093774         0.314364
16   0.001057  1.650471e-03 -0.001054 -1.647883e-03  3.318698e-06  2.587644e-06   0.002818  0.002818  0.002818    1.003891       -0.092255  1.001858     -0.051278         1.225238
--------------------------------------------------

TRAFO:
    p_hv_mw  q_hv_mvar   p_lv_mw  q_lv_mvar    pl_mw  ql_mvar   i_hv_ka   i_lv_ka  vm_hv_pu  va_hv_degree  vm_lv_pu  va_lv_degree  loading_percent
0  0.001067  -0.004169 -0.001057   0.005169  0.00001    0.001  0.000166  0.007615   0.99995      0.000216   0.99995      0.000213         0.052759
1 -0.002273  -0.008657  0.002283   0.009657  0.00001    0.001  0.000345  0.014325   0.99986     -0.001296   0.99986     -0.001302         0.099244
2  0.029923   0.031099 -0.029913  -0.027099  0.00001    0.004  0.000356  0.001554   1.00000      0.000000   1.00000      0.000004         0.107893
3  0.036369   0.023920 -0.036359  -0.019920  0.00001    0.004  0.000359  0.001596   1.00000      0.000000   1.00000      0.000003         0.108826
--------------------------------------------------
